13

C         -5.59134       -0.32192       -3.45387
C         -4.66117        0.86743       -3.65965
C         -6.04892       -0.91417       -4.78740
C         -6.94421       -2.12589       -4.55674
H         -5.18539        1.67729       -4.21046
H         -3.76148        0.55512       -4.23065
H         -4.33753        1.25569       -2.67162
H         -5.16144       -1.23197       -5.37640
H         -6.61063       -0.14928       -5.36683
H         -6.39317       -2.90877       -3.99297
H         -7.26102       -2.54627       -5.53446
H         -7.85073       -1.83346       -3.98486
H         -6.47251       -0.00042       -2.85664
