16

C         -5.59282       -0.30437       -3.39904
C         -6.75818        0.17793       -2.52057
C         -4.63866        0.86668       -3.66961
C         -6.07513       -0.90028       -4.74181
C         -6.94078       -2.15073       -4.57826
H         -7.35141        0.95505       -3.04878
H         -6.36744        0.60960       -1.57434
H         -7.42634       -0.66201       -2.24386
H         -5.15813        1.67710       -4.22534
H         -3.76847        0.52344       -4.26900
H         -4.25432        1.27924       -2.71224
H         -5.18389       -1.19248       -5.33978
H         -6.64279       -0.13609       -5.31694
H         -6.38404       -2.93372       -4.02097
H         -7.20371       -2.54868       -5.58105
H         -7.88698       -1.92119       -4.04839
