13

C         -7.84400       -1.82974        0.24161
C         -9.34095       -2.29467        0.58579
C         -7.36744       -2.29516        1.72497
C         -6.30372       -1.38364       -0.02867
H        -10.19368       -2.21322       -0.11986
H         -9.74652       -1.71170        1.44760
H         -9.37392       -3.38961        0.80278
H         -8.08104       -2.73835        2.46560
H         -6.98252       -1.44356        2.33449
H         -6.61191       -3.11545        1.69065
H         -5.97760       -0.93624       -1.00217
H         -5.59705       -2.24581        0.01807
H         -5.96811       -0.57410        0.66192
